data_Cod4bdp-collapsed
_audit_creation_date              2020-08-03
_audit_creation_method            'Materials Studio'
_symmetry_space_group_name_H-M    'C2/C'
_symmetry_Int_Tables_number       15
_symmetry_cell_setting            monoclinic
loop_
_symmetry_equiv_pos_as_xyz
  x,y,z
  -x,y,-z+1/2
  -x,-y,-z
  x,-y,z+1/2
  x+1/2,y+1/2,z
  -x+1/2,y+1/2,-z+1/2
  -x+1/2,-y+1/2,-z
  x+1/2,-y+1/2,z+1/2
_cell_length_a                    24.6870
_cell_length_b                    6.6675
_cell_length_c                    7.0913
_cell_angle_alpha                 90.0000
_cell_angle_beta                  92.4090
_cell_angle_gamma                 90.0000
loop_
_atom_site_label
_atom_site_type_symbol
_atom_site_fract_x
_atom_site_fract_y
_atom_site_fract_z
_atom_site_U_iso_or_equiv
_atom_site_adp_type
_atom_site_occupancy
C1     C     0.78080   0.88200   0.59800   0.00000  Uiso   1.00
C2     C     0.72440   0.87900   0.61400   0.00000  Uiso   1.00
C3     C     0.68940   0.74600   0.51600   0.00000  Uiso   1.00
C4     C     0.62920   0.78700   0.50500   0.00000  Uiso   1.00
C5     C     0.60000   0.88600   0.64000   0.00000  Uiso   1.00
C6     C     0.59200   0.71200   0.36800   0.00000  Uiso   1.00
N1     N     0.54390   0.88000   0.60100   0.00000  Uiso   1.00
N2     N     0.53920   0.77800   0.39800   0.00000  Uiso   1.00
D1     H     0.80940   1.00260   0.66800   0.00000  Uiso   1.00
D2     H     0.71030   1.01240   0.69300   0.00000  Uiso   1.00
H1     H     0.62240   0.96600   0.76400   0.00000  Uiso   1.00
H2     H     0.60740   0.60900   0.27300   0.00000  Uiso   1.00
Co     Co    0.50000   1.03440   0.75000   0.00000  Uiso   1.00
loop_
_geom_bond_atom_site_label_1
_geom_bond_atom_site_label_2
_geom_bond_distance
_geom_bond_site_symmetry_2
_ccdc_geom_bond_type
C1     C2      1.402   .     D
C1     D1      1.167   .     S
C1     C3      1.405   7_666 S
C2     C3      1.402   .     S
C2     D2      1.115   .     S
C3     C4      1.510   .     D
C3     C1      1.405   7_666 S
C4     C5      1.389   .     S
C4     C6      1.401   .     S
C5     N1      1.401   .     D
C5     H1      1.150   .     S
C6     N2      1.400   .     D
C6     H2      1.045   .     S
N1     N2      1.592   .     S
N1     Co      1.857   .     S
N2     Co      1.875   3_676 S
Co     N1      1.857   2_656 S
Co     N2      1.875   3_676 S
Co     N2      1.875   4_575 S
